27
0 1
 C        -0.104779276739      0.358035005655     -0.180351526538
 C        -1.007113896296      1.421845404397     -0.068065560832
 C        -2.375085418105      1.197612203398      0.020461377487
 C        -2.865215631931     -0.116037153772     -0.003296310789
 C        -1.972208006639     -1.193489275051     -0.115092645119
 C        -0.609330579720     -0.949520181587     -0.201857409926
 H        -0.633765144052      2.439732536934     -0.051393643014
 H        -3.063031805784      2.029698364333      0.104338037331
 H        -2.350345944693     -2.208104170637     -0.134276701621
 H         0.076964225600     -1.783740797751     -0.291176047055
 C         1.389902184766      0.613393605928     -0.227219251469
 C         2.017275986415      0.396446576813      1.170342838462
 C         2.088759527061     -0.234507944906     -1.271005105166
 H         1.530242879652      1.667777237561     -0.499614533151
 C         3.546804360481      0.419542088496      1.093943152894
 H         1.687400332462     -0.574351428056      1.558140353988
 H         1.644583616129      1.160084840549      1.858646566277
 C         3.266496095831     -0.829286186092     -1.076843099122
 H         1.579858864122     -0.343128025076     -2.225219728698
 C         4.063314563218     -0.714087593400      0.197448411679
 H         3.978180889785      0.338042368424      2.095547660106
 H         3.870964812191      1.382916402979      0.683405096930
 H         3.695056583898     -1.429544829853     -1.875445820110
 H         5.120441902058     -0.558852846502     -0.044262172002
 H         4.020418198110     -1.670590398734      0.736417869466
 C        -4.270559539019     -0.357291851414      0.083289968439
 N        -5.407848885391     -0.552955441836      0.153916798422
