16
0 1
 C        -0.665530005637      1.335061492323     -0.000152269388
 C         0.664463092860      1.335585510733     -0.000292986134
 H        -1.197310131516      2.283960145938     -0.000244170901
 H         1.195496393466      2.284902325387     -0.000516304679
 C        -1.524607220327      0.104926752702      0.000067311536
 H        -2.193532603597      0.157579815189      0.867919004339
 H        -2.194023423581      0.157714416597     -0.867395967198
 C        -0.780070544983     -1.256310195942     -0.000341681222
 H        -1.118051743808     -1.825616895139     -0.869058887511
 H        -1.118742806243     -1.826504124164      0.867523364012
 C         0.781047189118     -1.255694591396      0.000340729349
 H         1.120160240622     -1.825585056178     -0.867551378346
 H         1.119484613227     -1.824772825118      0.869030389519
 C         1.524510510670      0.106127523032     -0.000023664245
 H         2.193685207893      0.159164366824     -0.867657449498
 H         2.193591231830      0.159588354446      0.867658960374
