28
0 2
 C        -0.158209272945      0.238922181950     -0.244704643278
 C        -1.005373662955      1.305777033762     -0.565068821691
 C        -2.381453460954      1.204344620519     -0.404571971310
 C        -2.936250956696      0.014323446789      0.087899886153
 C        -2.099126651458     -1.063857882867      0.415997009066
 C        -0.727251460355     -0.943380467678      0.248937223150
 H        -0.582122952982      2.227599406411     -0.948209344582
 H        -3.026292214423      2.035995718436     -0.659998484604
 H        -2.527046308649     -1.982903931616      0.796804256529
 H        -0.083238114592     -1.778150864526      0.500469869200
 C         1.343355848567      0.370473254282     -0.384350590291
 C         1.999355651324      0.646078610245      0.999424302552
 C         1.986613133356     -0.808365478853     -1.053807867100
 H         1.543825439674      1.265772699456     -0.999338521081
 C         3.528120028251      0.695220064976      0.895691632084
 H         1.704830843470     -0.151798267608      1.690771784878
 H         1.605310790870      1.583955465235      1.402124652581
 C         3.476462765082     -0.910118780813     -1.064936740967
 H         1.397931595726     -1.408468734313     -1.739300376010
 C         4.088293625354     -0.610345436710      0.318375955239
 H         3.958308298585      0.889051095526      1.883176422931
 H         3.821777996913      1.534441642660      0.252009662105
 H         3.792538603128     -1.894210186261     -1.423299954895
 H         5.178447091435     -0.559197915473      0.240330335792
 H         3.852417609816     -1.435120198210      1.001164410303
 C        -4.350428315694     -0.101483736067      0.253455651203
 N        -5.494881058766     -0.195642768812      0.387991004870
 H         3.888419941033     -0.178000550323     -1.783889424190
