35
0 2
 Si        0.201967748287     -0.203389611812     -0.083336750343
 C         0.775123422570      0.727177001527     -1.618139814736
 C        -0.028161312296      1.709919863153     -2.220455151613
 C         2.041622852691      0.462178158998     -2.170849114843
 C         0.410929609717      2.390510196046     -3.353443713355
 H        -1.006533946599      1.935961351527     -1.810915483279
 C         2.481168672224      1.143689891610     -3.302746201345
 H         2.680758498376     -0.290543277021     -1.721897696331
 C         1.665977454590      2.108827498016     -3.895119518979
 H        -0.224190971200      3.138215023570     -3.814875856614
 H         3.456140374199      0.923428069737     -3.722447383766
 H         2.007749558285      2.640575103741     -4.775920322827
 C        -1.656705179604     -0.069386705810      0.168638381126
 C        -2.252931205977      1.126730539344      0.602823901595
 C        -2.489444948333     -1.164616985096     -0.113298067804
 C        -3.636024331520      1.229523054803      0.736058423142
 H        -1.632598819809      1.983164902592      0.844363371497
 C        -3.873539208067     -1.064198340815      0.021941439418
 H        -2.056333872077     -2.104022664002     -0.439708764269
 C        -4.448596963736      0.133333129839      0.445295187079
 H        -4.078963290103      2.160779526861      1.071000842055
 H        -4.501232516208     -1.920007482201     -0.200018645646
 H        -5.524640364299      0.211348674454      0.552929471856
 C         0.728823593910     -2.003762560216     -0.172834562639
 C         1.104708234040     -2.717427761931      0.975627893443
 C         0.696331326561     -2.687508920932     -1.399548137967
 C         1.434452666828     -4.069476084463      0.903570622120
 H         1.146887122344     -2.215110941151      1.936895811695
 C         1.025895345103     -4.040173639804     -1.475197644231
 H         0.418362931338     -2.160926340731     -2.306745754148
 C         1.394882302687     -4.733021217105     -0.322807175072
 H         1.724947830959     -4.603963627582      1.801131172577
 H         0.997653702202     -4.550692374696     -2.431354749916
 H         1.653706822616     -5.784336389153     -0.380283441708
 S         1.238124361836      0.881154647820      1.466649199812
