14
1_2_DCB_reduced
 C        -0.733658271315      1.294329137895      0.000007818597
 C         0.683911284031      1.246703011809      0.000006093201
 C         1.371577278878      0.058481387292      0.000001448292
 C         0.656731578112     -1.179463867876     -0.000001256546
 C        -0.716050836143     -1.178165432862      0.000000258913
 C        -1.466265569258      0.025787370656      0.000004217540
 H         1.225695434936      2.188478489321      0.000008278332
 H         1.196493859136     -2.120271116816     -0.000004475966
 H        -1.260739163562     -2.118264297179     -0.000001944602
 C        -2.860318523486     -0.008092395923      0.000004583161
 N        -4.036561173367     -0.027245846818      0.000006281413
 H         2.456201696657      0.061404272248     -0.000000169635
 C        -1.401472761656      2.518589438479      0.000013164332
 N        -1.973271352963      3.546618429775      0.000018522967