12
1_2_DCB_fragment
 C        -0.694172494512      1.221321719511      0.000001055378
 C         0.698576524469      1.223487194679     -0.000000553921
 C         1.323878126163      0.000034877461     -0.000004411487
 C         0.698595749595     -1.223429985764     -0.000003634377
 C        -0.694150241615     -1.221288800871      0.000000771783
 C        -1.385296477712      0.000011923525      0.000001510806
 H        -1.246863251312      2.154471961278      0.000002091346
 H         1.249918051338      2.157417622811     -0.000002827722
 H         1.249957873072     -2.157348334515     -0.000006027010
 H        -1.246829816688     -2.154445752504      0.000001335822
 C        -2.808807493225     -0.000007390032      0.000004170913
 N        -3.970439549573     -0.000005985579      0.000006418471