12
2_CNPY_neutral
 C        -0.680164139862      1.232256301320      0.000001726227
 C         0.708181669613      1.230232651404      0.000001520825
 C         1.373137451741      0.012029675777      0.000001193408
 C         0.622131182657     -1.161957592412      0.000000826524
 C        -1.332948785798     -0.000710730534      0.000000031217
 H        -1.248478505137      2.154598565395      0.000002874886
 H         1.257409953107      2.164623615603      0.000002513698
 H         1.117291915141     -2.129638353439     -0.000000155879
 C        -2.766692372210     -0.047528568817      0.000001953614
 N        -3.926637680752     -0.073639994383      0.000003187400
 H         2.455630544162     -0.035432312832      0.000001288204
 N        -0.709596232660     -1.190790107084      0.000000199875