20
Et_4_CNBZ_fragment
 C        -0.829192431559      0.742837836057     -0.862479776883
 C         0.523027261490      1.048434629179     -0.706336519415
 C         1.247278539158      0.251475107055      0.147232365098
 C         0.752958430359     -0.816950866711      0.856911503293
 C        -0.599485227372     -1.109151329727      0.689937172691
 C        -1.389222422968     -0.333950389507     -0.165605605735
 H        -1.450998909816      1.336570884697     -1.522769642144
 H         0.969552305943      1.880425695943     -1.240677612432
 H         1.374384753378     -1.411821514642      1.517983022874
 H        -1.059949274115     -1.938055918162      1.217701447644
 C        -2.821176138096     -0.698601024794     -0.298032264427
 O        -3.348922465042     -1.622131967689      0.286067828690
 O        -3.475793224954      0.112533409835     -1.142898156580
 C        -4.880979847184     -0.177573563707     -1.326514896629
 H        -5.374258786542     -0.131015914910     -0.351325949317
 H        -4.977434197740     -1.203659638142     -1.693102451440
 C        -5.426960243552      0.832000282072     -2.295110245599
 H        -6.489575591169      0.648876853412     -2.463067482138
 H        -5.314694057144      1.847519335073     -1.910453569652
 H        -4.916084693077      0.770392224669     -3.257944007900