12
4_CNPY_reduced
 C        -0.689960911479      1.211940924641      0.000001901683
 C         0.679110019036      1.142032679484     -0.000002533037
 C         0.679129059351     -1.141976740894     -0.000003811246
 C        -0.689938326471     -1.211905996460      0.000000432259
 C        -1.467802981448      0.000011686467      0.000002863784
 H        -1.186072147568      2.177899656508      0.000005181008
 H         1.250653386688      2.071532043722     -0.000002845386
 H         1.250692120947     -2.071463059322     -0.000005721607
 H        -1.186039216341     -2.177870293940      0.000002641371
 C        -2.855400613254     -0.000011479230      0.000003309320
 N        -4.037676228566     -0.000007056519      0.000004333126
 N         1.427672839106      0.000036685543     -0.000005851275