10
4_CNPY_fragment
 C        -0.717907964728      1.208312922529      0.000004658252
 C         0.680518198280      1.141822933858     -0.000006060736
 C         0.680520273105     -1.141764705213     -0.000004467872
 C        -0.717900483948     -1.208256779077      0.000002337720
 C        -1.364168158062      0.000027519055      0.000007902776
 H        -1.229289005066      2.164712139312      0.000009647443
 H         1.263136471825      2.061943545202     -0.000005848504
 H         1.263146114434     -2.061879986725     -0.000007832412
 H        -1.229285069078     -2.164654463337      0.000005315791
 N         1.371226623238      0.000032074397     -0.000006543416